LAMMPS (3 Nov 2022)
# Si hcp

units           metal
boundary        p p p

atom_style      atomic
#lattice                custom 2.93093 a1 0.5 -0.866025 0 a2 0.5 0.866025 0 a3 0 0 1.596 basis 0.333333 0.666666 0.25 basis 0.666666 0.333333 0.75
lattice         custom 2.93093 a1 0.5 -0.866025 0 a2 0.5 0.866025 0 a3 0 0 1.7 basis 0.333333 0.666666 0.25 basis 0.666666 0.333333 0.75
Lattice spacing in x,y,z = 2.93093 5.0765173 4.982581
region          box block 0 1 0 1 0 1
create_box              1 box
Created orthogonal box = (0 0 0) to (2.93093 5.0765173 4.982581)
create_atoms    1 box
Created 4 atoms

pair_style      meam/sw/spline
pair_coeff      * * Si.b.meam.sw.spline Si
Reading meam/sw/spline potential file Si.b.meam.sw.spline with DATE: 2012-10-26
mass            * 28.085

fix                     relax all box/relax aniso 0
thermo          1
minimize        0 0 10000 100000
Step          Temp          E_pair         E_mol          TotEng         Press          Volume
0   0             -16.762227      0             -16.762227     -314547.95      74.135408
Averages over the last 5001 of 10001 rows, steps 5000 to 10000:
Temp E_pair E_mol TotEng Press Volume
0 -17.7817 0 -17.7817 -3.51783e-11 66.4868
Loop time of 1.20503 on 1 procs for 10000 steps with 4 atoms

Minimization stats:
  Stopping criterion = max iterations
  Energy initial, next-to-last, final =
  Force two-norm initial, final = 25.461198 8.8878297e-14
  Force max component initial, final = 17.471035 6.2703592e-14
  Final line search alpha, max atom move = 1 6.2703592e-14
  Iterations, force evaluations = 10000 18031

variable        cohesive_energy equal pe/atoms
variable        lattice_parameter equal lx
variable        c_to_a equal lz/lx
variable        atmVol equal vol/atoms
run                     0
Step          Temp          E_pair         E_mol          TotEng         Press          Volume
10000   0             -17.781718      0             -17.781718     -1.0779541e-09  66.486818
Loop time of 8.81e-07 on 1 procs for 0 steps with 4 atoms

print           "===================================================="
====================================================
Calculated cohesive energy: -4.44542957873261 eV/atom
print           "Reference cohesive energy:  -4.352 eV/atom"
Reference cohesive energy:  -4.352 eV/atom
Calculated lattice parameter: 2.76079963615789 A
print           "Reference lattice parameter:  2.736 A"
Reference lattice parameter:  2.736 A
Atomic volume                 16.6217045402861 A^3
c/a ratio:                    1.71820967774805
print           "Reference c/a ratio:          1.633"
Reference c/a ratio:          1.633
print           "===================================================="
====================================================

#dump           1 all custom 1 hcp.dump id type x y z fx fy fz
#run            0
