LAMMPS (3 Nov 2022)
# Si fcc phase

units           metal
boundary        p p p

atom_style      atomic
lattice         sc 2.612
Lattice spacing in x,y,z = 2.612 2.612 2.612
region          box block 0 1 0 1 0 1
create_box              1 box
Created orthogonal box = (0 0 0) to (2.612 2.612 2.612)
create_atoms    1 box
Created 1 atoms

pair_style      meam/sw/spline
pair_coeff      * * Si.b.meam.sw.spline Si
Reading meam/sw/spline potential file Si.b.meam.sw.spline with DATE: 2012-10-26
mass            * 28.085

fix                     relax all box/relax aniso 0
thermo          1
minimize        0 0 10000 100000
Step          Temp          E_pair         E_mol          TotEng         Press          Volume
0   0             -4.3368757      0             -4.3368757     -41.869135      17.820485
Averages over the last 2130 of 4260 rows, steps 2130 to 4259:
Temp E_pair E_mol TotEng Press Volume
0 -4.33688 0 -4.33688 -1.06662e-12 17.8201
Loop time of 0.402665 on 4 procs for 4259 steps with 1 atoms

Minimization stats:
  Stopping criterion = quadratic factors are zero
  Energy initial, next-to-last, final =
  Force two-norm initial, final = 0.00080661032 5.9264807e-15
  Force max component initial, final = 0.00046569669 3.9192579e-15
  Final line search alpha, max atom move = 1 3.9192579e-15
  Iterations, force evaluations = 4259 8518

variable        cohesive_energy equal pe/atoms
variable        atmVol equal vol/atoms
variable        aLatt equal (vol/atoms)^0.3333333333

run                     0
Step          Temp          E_pair         E_mol          TotEng         Press          Volume
4259   0             -4.3368757      0             -4.3368757      4.121405e-10   17.820115
Loop time of 3.46025e-06 on 4 procs for 0 steps with 1 atoms

print           "===================================================="
====================================================
Calculated cohesive energy: -4.33687572774504 eV/atom
print           "Reference cohesive energy:  -4.337 eV/atom"
Reference cohesive energy:  -4.337 eV/atom
Atomic volume               17.8201147853823 A^3
Lattice constant            2.61198191533279 A
print           "Reference lattice constant  2.612 A"
Reference lattice constant  2.612 A
print           "===================================================="
====================================================

#dump           1 all custom 1 fcc.dump id type x y z fx fy fz
#run            0
