LAMMPS (3 Nov 2022)
# Si dc phase

units           metal
boundary        p p p

atom_style      atomic
lattice         diamond 5.43
Lattice spacing in x,y,z = 5.43 5.43 5.43
region          box block 0 1 0 1 0 1
create_box              1 box
Created orthogonal box = (0 0 0) to (5.43 5.43 5.43)
create_atoms    1 box
Created 8 atoms

pair_style      meam/sw/spline
pair_coeff      * * Si.b.meam.sw.spline Si
Reading meam/sw/spline potential file Si.b.meam.sw.spline with DATE: 2012-10-26
mass            * 28.085

fix                     relax all box/relax aniso 0
thermo          1
minimize        0 0 10000 100000
Step          Temp          E_pair         E_mol          TotEng         Press          Volume
0   0             -37.039984      0             -37.039984      563.98821      160.10301
Averages over the last 5001 of 10001 rows, steps 5000 to 10000:
Temp E_pair E_mol TotEng Press Volume
0 -37.04 0 -37.04 6.94373e-12 160.187
Loop time of 1.41021 on 1 procs for 10000 steps with 8 atoms

Minimization stats:
  Stopping criterion = max iterations
  Energy initial, next-to-last, final =
  Force two-norm initial, final = 0.097615725 8.9871009e-14
  Force max component initial, final = 0.056358465 6.0455736e-14
  Final line search alpha, max atom move = 1 6.0455736e-14
  Iterations, force evaluations = 10000 19999

variable        cohesive_energy equal pe/atoms
variable        atmVol equal vol/atoms
variable        aLatt equal (8*vol/atoms)^0.333333333333

run                     0
Step          Temp          E_pair         E_mol          TotEng         Press          Volume
10000   0             -37.039999      0             -37.039999      4.192055e-10   160.18662
Loop time of 5.32e-07 on 1 procs for 0 steps with 8 atoms

print           "===================================================="
====================================================
Calculated cohesive energy: -4.62999988918745 eV/atom
print           "Reference cohesive energy:  -4.63 eV/atom"
Reference cohesive energy:  -4.63 eV/atom
Atomic volume               20.0233273617701 A^3
Lattice constant            5.43094508649583 A
print           "Reference lattice constant  5.431 A"
Reference lattice constant  5.431 A
print           "===================================================="
====================================================

#dump           1 all custom 1 dc.dump id type x y z fx fy fz
#run            0
