LAMMPS (3 Nov 2022)
# Si hcp

units           metal
boundary        p p p

atom_style      atomic
#lattice                custom 2.93093 a1 0.5 -0.866025 0 a2 0.5 0.866025 0 a3 0 0 1.596 basis 0.333333 0.666666 0.25 basis 0.666666 0.333333 0.75
lattice         custom 2.93093 a1 0.5 -0.866025 0 a2 0.5 0.866025 0 a3 0 0 1.7 basis 0.333333 0.666666 0.25 basis 0.666666 0.333333 0.75
Lattice spacing in x,y,z = 2.93093 5.0765173 4.982581
region          box block 0 1 0 1 0 1
create_box              1 box
Created orthogonal box = (0 0 0) to (2.93093 5.0765173 4.982581)
create_atoms    1 box
Created 4 atoms

pair_style      meam/sw/spline
pair_coeff      * * Si.b.meam.sw.spline Si
Reading meam/sw/spline potential file Si.b.meam.sw.spline with DATE: 2012-10-26
mass            * 28.085

fix                     relax all box/relax aniso 0
thermo          1
minimize        0 0 10000 100000
Step          Temp          E_pair         E_mol          TotEng         Press          Volume
0   0             -16.762227      0             -16.762227     -314547.95      74.135408
Averages over the last 682 of 1364 rows, steps 682 to 1363:
Temp E_pair E_mol TotEng Press Volume
0 -17.2887 0 -17.2887 -175.793 69.9039
Loop time of 0.10075 on 4 procs for 1363 steps with 4 atoms

Minimization stats:
  Stopping criterion = linesearch alpha is zero
  Energy initial, next-to-last, final =
  Force two-norm initial, final = 25.461198 2.6317686e-09
  Force max component initial, final = 17.471035 2.1004698e-09
  Final line search alpha, max atom move = 0.5 1.0502349e-09
  Iterations, force evaluations = 1363 1432

variable        cohesive_energy equal pe/atoms
variable        lattice_parameter equal lx
variable        c_to_a equal lz/lx
variable        atmVol equal vol/atoms
run                     0
Step          Temp          E_pair         E_mol          TotEng         Press          Volume
1363   0             -17.407164      0             -17.407164      3.398773e-07   68.739514
Loop time of 2.618e-06 on 4 procs for 0 steps with 4 atoms

print           "===================================================="
====================================================
Calculated cohesive energy: -4.35179093500837 eV/atom
print           "Reference cohesive energy:  -4.352 eV/atom"
Reference cohesive energy:  -4.352 eV/atom
Calculated lattice parameter: 2.73621887141886 A
print           "Reference lattice parameter:  2.736 A"
Reference lattice parameter:  2.736 A
Atomic volume                 17.1848785131775 A^3
c/a ratio:                    1.73054348005468
print           "Reference c/a ratio:          1.633"
Reference c/a ratio:          1.633
print           "===================================================="
====================================================

#dump           1 all custom 1 hcp.dump id type x y z fx fy fz
#run            0
