LAMMPS (3 Nov 2022)
# Si bcc

units           metal
boundary        p p p

atom_style      atomic
lattice         bcc 3.2488516
Lattice spacing in x,y,z = 3.2488516 3.2488516 3.2488516
region          box block 0 1 0 1 0 1
create_box              1 box
Created orthogonal box = (0 0 0) to (3.2488516 3.2488516 3.2488516)
create_atoms    1 box
Created 2 atoms

pair_style      meam/sw/spline
pair_coeff      * * Si.b.meam.sw.spline Si
Reading meam/sw/spline potential file Si.b.meam.sw.spline with DATE: 2012-10-26
mass            * 28.085

fix                     relax all box/relax aniso 0
thermo          1
minimize        0 0 10000 100000
Step          Temp          E_pair         E_mol          TotEng         Press          Volume
0   0             -8.7404875      0             -8.7404875     -77295.383      34.291748
Averages over the last 4333 of 8666 rows, steps 4333 to 8665:
Temp E_pair E_mol TotEng Press Volume
0 -8.74898 0 -8.74898 5.8217e-13 33.9441
Loop time of 0.729027 on 4 procs for 8665 steps with 2 atoms

Minimization stats:
  Stopping criterion = quadratic factors are zero
  Energy initial, next-to-last, final =
  Force two-norm initial, final = 2.865454 2.7720348e-15
  Force max component initial, final = 1.6543707 1.7824284e-15
  Final line search alpha, max atom move = 1 1.7824284e-15
  Iterations, force evaluations = 8665 17297

variable        cohesive_energy equal pe/atoms
variable        atmVol equal vol/atoms
variable        aLatt equal (2*vol/atoms)^0.333333333333

run                     0
Step          Temp          E_pair         E_mol          TotEng         Press          Volume
8665   0             -8.74898        0             -8.74898        9.8078051e-11  33.944126
Loop time of 2.501e-06 on 4 procs for 0 steps with 2 atoms

print           "===================================================="
====================================================
Calculated cohesive energy: -4.37448998072876 eV/atom
print           "Reference cohesive energy:  -4.37 eV/atom"
Reference cohesive energy:  -4.37 eV/atom
Atomic volume               16.9720627605584 A^3
Lattice constant            3.23783620452874 A
print           "Reference lattice constant  3.238 A"
Reference lattice constant  3.238 A
print           "===================================================="
====================================================

#dump           1 all custom 1 bcc.dump id type x y z fx fy fz
#run            0
