LAMMPS (3 Nov 2022)
# Si fcc phase

units           metal
boundary        p p p

atom_style      atomic
lattice         fcc 4.309793856093661
Lattice spacing in x,y,z = 4.3097939 4.3097939 4.3097939
region          box block 0 1 0 1 0 1
create_box              1 box
Created orthogonal box = (0 0 0) to (4.3097939 4.3097939 4.3097939)
create_atoms    1 box
Created 4 atoms

pair_style      meam/sw/spline
pair_coeff      * * Si.b.meam.sw.spline Si
Reading meam/sw/spline potential file Si.b.meam.sw.spline with DATE: 2012-10-26
mass            * 28.085

fix                     relax all box/relax aniso 0
thermo          1
minimize        0 0 10000 100000
Step          Temp          E_pair         E_mol          TotEng         Press          Volume
0   0             -14.885032      0             -14.885032     -693238.94      80.051503
Averages over the last 5001 of 10001 rows, steps 5000 to 10000:
Temp E_pair E_mol TotEng Press Volume
0 -17.159 0 -17.159 4.54663e-11 70.8149
Loop time of 0.852954 on 4 procs for 10000 steps with 4 atoms

Minimization stats:
  Stopping criterion = max iterations
  Energy initial, next-to-last, final =
  Force two-norm initial, final = 59.993295 9.581849e-14
  Force max component initial, final = 34.637145 6.0848149e-14
  Final line search alpha, max atom move = 1 6.0848149e-14
  Iterations, force evaluations = 10000 19600

variable        cohesive_energy equal pe/atoms
variable        atmVol equal vol/atoms
variable        aLatt equal (4*vol/atoms)^0.3333333333

run                     0
Step          Temp          E_pair         E_mol          TotEng         Press          Volume
10000   0             -17.15904       0             -17.15904      -6.9517313e-10  70.814937
Loop time of 2.1825e-06 on 4 procs for 0 steps with 4 atoms

print           "===================================================="
====================================================
Calculated cohesive energy: -4.28975995753248 eV/atom
print           "Reference cohesive energy:  -4.289 eV/atom"
Reference cohesive energy:  -4.289 eV/atom
Atomic volume               17.7037343507869 A^3
Lattice constant            4.13721691666803 A
print           "Reference lattice constant  4.137 A"
Reference lattice constant  4.137 A
print           "===================================================="
====================================================

#dump           1 all custom 1 fcc.dump id type x y z fx fy fz
#run            0
