LAMMPS (22 Dec 2022)
# 2d Lennard-Jones melt and subsequent energy minimization

units           lj
dimension       2
atom_style      atomic

lattice         sq2 0.8442
Lattice spacing in x,y,z = 1.5391903 1.5391903 1.5391903
region          box block 0 20 0 20 -0.1 0.1
create_box      1 box
Created orthogonal box = (0 0 -0.15391903) to (30.783806 30.783806 0.15391903)
create_atoms    1 box
Created 800 atoms
mass            1 1.0

velocity        all create 5.0 87287 loop geom

pair_style      lj/cut 2.5
pair_coeff      1 1 1.0 1.0 2.5
pair_modify     shift yes

neighbor        0.3 bin
neigh_modify    delay 0 every 1 check yes

fix             1 all nve
fix             2 all enforce2d

#dump           1 all atom 100 dump.min

#dump           2 all image 50 image.*.jpg type type #               zoom 1.6 adiam 1.5
#dump_modify    2 pad 4

#dump           3 all movie 50 movie.mpg type type #               zoom 1.6 adiam 1.5
#dump_modify    3 pad 4

thermo          100

run             1000
Generated 0 of 0 mixed pair_coeff terms from geometric mixing rule
Step          Temp          E_pair         E_mol          TotEng         Press
0   5             -2.461717       0              2.532033       5.0190509
Averages over the last 6 of 11 rows, steps 500 to 1000:
Temp E_pair E_mol TotEng Press
3.33435 -0.798711 0 2.53147 15.5519
Loop time of 0.166825 on 1 procs for 1000 steps with 800 atoms

neigh_modify    delay 0 every 1 check yes

#dump_modify    1 every 25

thermo          50
min_style       fire
minimize        0.0 1.0e-6 10000 10000
Generated 0 of 0 mixed pair_coeff terms from geometric mixing rule
  Parameters for fire:
    dmax  delaystep dtgrow dtshrink alpha0 alphashrink tmax tmin   integrator   halfstepback   abcfire
     0.1     20      1.1     0.5     0.25     0.99      10  0.02 eulerimplicit      yes          no
Step          Temp          E_pair         E_mol          TotEng         Press
1000   0             -0.79078181     0             -0.79078181     12.79527
Averages over the last 15 of 29 rows, steps 1700 to 2360:
Temp E_pair E_mol TotEng Press
2.50605e-06 -2.89516 0 -2.89516 -1.12868
Loop time of 0.238952 on 1 procs for 1360 steps with 800 atoms

Minimization stats:
  Stopping criterion = force tolerance
  Energy initial, next-to-last, final =
  Force two-norm initial, final = 1905.4669 9.5765456e-07
  Force max component initial, final = 343.39191 5.2855334e-07
  Final line search alpha, max atom move = 0 0
  Iterations, force evaluations = 1360 1371
