LAMMPS (4 Nov 2022)
# 20 styrene molecules
# three reactions defined

units real

boundary p p p

atom_style full

kspace_style pppm 1.0e-4

pair_style lj/class2/coul/long 8.5

angle_style class2

bond_style class2

dihedral_style class2

improper_style class2

variable T equal 530

read_data tiny_polystyrene.data    extra/bond/per/atom 5   extra/angle/per/atom 15   extra/dihedral/per/atom 15   extra/improper/per/atom 25   extra/special/per/atom 25
Reading data file ...
  orthogonal box = (1.7426663 1.7426663 1.7426663) to (18.257334 18.257334 18.257334)
  reading atom labelmap ...
  reading bond labelmap ...
  reading angle labelmap ...
  reading dihedral labelmap ...
  reading improper labelmap ...
  reading atoms ...
  320 atoms
  reading velocities ...
  320 velocities
  scanning bonds ...
  scanning angles ...
  scanning dihedrals ...
  scanning impropers ...
  reading bonds ...
  320 bonds
  reading angles ...
  480 angles
  reading dihedrals ...
  640 dihedrals
  reading impropers ...
  160 impropers
Finding 1-2 1-3 1-4 neighbors ...
     3 = max # of 1-2 neighbors
     6 = max # of 1-3 neighbors
    12 = max # of 1-4 neighbors
    39 = max # of special neighbors

molecule mol1 2styrene_unreacted.molecule_template
Read molecule template mol1:
  1 molecules
  0 fragments
  32 atoms with max type 4
  32 bonds with max type 11
  48 angles with max type 19
  64 dihedrals with max type 21
  16 impropers with max type 8
molecule mol2 2styrene_reacted.molecule_template
Read molecule template mol2:
  1 molecules
  0 fragments
  32 atoms with max type 6
  33 bonds with max type 13
  54 angles with max type 22
  79 dihedrals with max type 19
  14 impropers with max type 7
molecule mol3 chain_plus_styrene_unreacted.molecule_template
Read molecule template mol3:
  1 molecules
  0 fragments
  46 atoms with max type 6
  47 bonds with max type 13
  75 angles with max type 22
  105 dihedrals with max type 21
  21 impropers with max type 8
molecule mol4 chain_plus_styrene_reacted.molecule_template
Read molecule template mol4:
  1 molecules
  0 fragments
  46 atoms with max type 6
  48 bonds with max type 13
  81 angles with max type 22
  121 dihedrals with max type 19
  19 impropers with max type 7
molecule mol5 chain_chain_unreacted.molecule_template
Read molecule template mol5:
  1 molecules
  0 fragments
  50 atoms with max type 6
  51 bonds with max type 13
  84 angles with max type 22
  118 dihedrals with max type 19
  20 impropers with max type 7
molecule mol6 chain_chain_reacted.molecule_template
Read molecule template mol6:
  1 molecules
  0 fragments
  50 atoms with max type 6
  52 bonds with max type 13
  90 angles with max type 22
  135 dihedrals with max type 19
  18 impropers with max type 2

thermo 100

# dump 1 all xyz 5 test_vis.xyz

fix rxn1 all bond/react stabilization yes statted_grp .03  react rxn1 all 1 0 3.0 mol1 mol2 2styrene_map stabilize_steps 100  react rxn2 all 1 0 3.0 mol3 mol4 chain_plus_styrene_map stabilize_steps 100  react rxn3 all 1 0 5.0 mol5 mol6 chain_chain_map stabilize_steps 100
dynamic group bond_react_MASTER_group defined
dynamic group statted_grp_REACT defined

fix 1 statted_grp_REACT nvt temp $T $T 100
fix 1 statted_grp_REACT nvt temp 530 $T 100
fix 1 statted_grp_REACT nvt temp 530 530 100

fix 4 bond_react_MASTER_group temp/rescale 1 $T $T 1 1
fix 4 bond_react_MASTER_group temp/rescale 1 530 $T 1 1
fix 4 bond_react_MASTER_group temp/rescale 1 530 530 1 1

thermo_style custom step temp press density f_rxn1[1] f_rxn1[2] f_rxn1[3]

run 10000

CITE-CITE-CITE-CITE-CITE-CITE-CITE-CITE-CITE-CITE-CITE-CITE-CITE

Your simulation uses code contributions which should be cited:

- fix bond/react: reacter.org doi:10.1016/j.polymer.2017.09.038, doi:10.1021/acs.macromol.0c02012

@Article{Gissinger17,
 author = {J. R. Gissinger and B. D. Jensen and K. E. Wise},
 title = {Modeling Chemical Reactions in Classical Molecular Dynamics Simulations},
 journal = {Polymer},
 year =    2017,
 volume =  128,
 pages =   {211--217}
}

@Article{Gissinger20,
 author = {J. R. Gissinger, B. D. Jensen, K. E. Wise},
 title = {{REACTER}: A Heuristic Method for Reactive Molecular Dynamics},
 journal = {Macromolecules},
 year =    2020,
 volume =  53,
 number =  22,
 pages =   {9953--9961}
}

CITE-CITE-CITE-CITE-CITE-CITE-CITE-CITE-CITE-CITE-CITE-CITE-CITE

PPPM initialization ...
  G vector (1/distance) = 0.25561147
  grid = 6 6 6
  stencil order = 5
  estimated absolute RMS force accuracy = 0.0097469157
  estimated relative force accuracy = 2.9352547e-05
  3d grid and FFT values/proc = 704 72
Generated 21 of 21 mixed pair_coeff terms from sixthpower/geometric mixing rule
Step          Temp          Press         Density       f_rxn1[1]      f_rxn1[2]      f_rxn1[3]
0   320.13638     -376.0844       0.76796752     0              0              0
Averages over the last 51 of 101 rows, steps 5000 to 10000:
Temp Press Density f_rxn1[1] f_rxn1[2] f_rxn1[3]
526.215 -19076.3 0.767968 7.78431 2 4.47059
Loop time of 11.2088 on 4 procs for 10000 steps with 320 atoms

# write_restart restart_longrun nofix
# write_data restart_longrun.data
