LAMMPS (3 Nov 2022)
# bulk Ti lattice

variable        x index 1
variable        y index 1
variable        z index 1

variable        xx equal 20*$x
variable        xx equal 20*1
variable        yy equal 20*$y
variable        yy equal 20*1
variable        zz equal 20*$z
variable        zz equal 20*1

units           metal
atom_style      atomic

variable       a equal 2.28806
variable       covera equal 1.58111
variable       sqrt3 equal sqrt(3.)
variable       theta equal PI/2.
variable       cos_theta equal round(cos(1.5707963267949))
variable       sin_theta equal round(sin(1.5707963267949))
variable       Dx equal 1.
variable       Dy equal 1.58111
variable       Dz equal sqrt(3.)

lattice        custom 2.28806 a1 1 0 0 a2 0 1.73205080756888 0 a3 0 0 1.58111                basis 0.0 0.0 0.0                basis 0.5 0.5 0.0                basis 0.5 0.833333 0.5                basis 0.0 0.333333 0.5                orient x  1             0             0                orient y  0  -0  1                orient z  0 -1  -0                spacing 1 1.58111 1.73205080756888                origin 0.25 0.25 0.15
Lattice spacing in x,y,z = 2.28806 3.6176745 3.9630362

variable       Xlo equal -round(9./(2.28806*1))
variable       Xhi equal  round(9./(2.28806*1))
variable       Ylo equal -round(9./(2.28806*1.58111))
variable       Yhi equal  round(9./(2.28806*1.58111))
variable       Zlo equal -round(3./(2.28806*1.73205080756888))
variable       Zhi equal  round(3./(2.28806*1.73205080756888))

region         box prism  -4 4 -2 2 -1 1 0.0 0.0 0.0

boundary       p p p

create_box      1 box
Created triclinic box = (-9.15224 -7.2353491 -3.9630362) to (9.15224 7.2353491 3.9630362) with tilt (0 0 0)
create_atoms    1 box
Created 256 atoms

pair_style      meam/sw/spline
pair_coeff      * * Ti.meam.sw.spline Ti
Reading meam/sw/spline potential file Ti.meam.sw.spline with DATE: 2012-02-01
mass            * 47.90

velocity        all create 300.0 376847 loop geom

neighbor        1.0 bin
neigh_modify    every 1 delay 5 check yes

fix             1 all nve

thermo 1
thermo_style    custom step vol etotal press pxx pyy pxz
thermo_modify   format 2 %14.8f
thermo_modify   format 3 %14.8f
thermo_modify   format 4 %14.8f
thermo_modify   format 5 %14.8f
thermo_modify   format 6 %14.8f
thermo_modify   format 7 %14.8f

timestep        0.002
thermo          10

run             2000
Step         Volume         TotEng         Press           Pxx            Pyy            Pxz
0   2099.44698923   141.95084453 2770269.20500733 1849461.67282887 4612443.51948809  -200.92314181
Averages over the last 101 of 201 rows, steps 1000 to 2000:
Volume TotEng Press Pxx Pyy Pxz
2099.45 171.844 2.09867e+06 2.1012e+06 2.0832e+06 1679.34
Loop time of 87.4745 on 1 procs for 2000 steps with 256 atoms
