LAMMPS (22 Dec 2022)
# 2d Lennard-Jones melt and subsequent energy minimization

units           lj
dimension       2
atom_style      atomic

lattice         sq2 0.8442
Lattice spacing in x,y,z = 1.5391903 1.5391903 1.5391903
region          box block 0 20 0 20 -0.1 0.1
create_box      1 box
Created orthogonal box = (0 0 -0.15391903) to (30.783806 30.783806 0.15391903)
create_atoms    1 box
Created 800 atoms
mass            1 1.0

velocity        all create 5.0 87287 loop geom

pair_style      lj/cut 2.5
pair_coeff      1 1 1.0 1.0 2.5
pair_modify     shift yes

neighbor        0.3 bin
neigh_modify    delay 0 every 1 check yes

fix             1 all nve
fix             2 all enforce2d

#dump           1 all atom 100 dump.min

#dump           2 all image 50 image.*.jpg type type #               zoom 1.6 adiam 1.5
#dump_modify    2 pad 4

#dump           3 all movie 50 movie.mpg type type #               zoom 1.6 adiam 1.5
#dump_modify    3 pad 4

thermo          100

run             1000
Generated 0 of 0 mixed pair_coeff terms from geometric mixing rule
Step          Temp          E_pair         E_mol          TotEng         Press
0   5             -2.461717       0              2.532033       5.0190509
Averages over the last 6 of 11 rows, steps 500 to 1000:
Temp E_pair E_mol TotEng Press
3.33075 -0.795081 0 2.53151 15.5713
Loop time of 0.0572052 on 4 procs for 1000 steps with 800 atoms

neigh_modify    delay 0 every 1 check yes

#dump_modify    1 every 25

thermo          50
min_style       cg
minimize        0.0 1.0e-6 10000 10000
Generated 0 of 0 mixed pair_coeff terms from geometric mixing rule
Step          Temp          E_pair         E_mol          TotEng         Press
1000   3.3058424     -0.77076863     0              2.5309414      15.708171
Loop time of 0.0728828 on 4 procs for 652 steps with 800 atoms

Minimization stats:
  Stopping criterion = force tolerance
  Energy initial, next-to-last, final =
  Force two-norm initial, final = 1950.9513 9.2917037e-07
  Force max component initial, final = 374.09844 1.7586322e-07
  Final line search alpha, max atom move = 1 1.7586322e-07
  Iterations, force evaluations = 652 1299
