LAMMPS (4 Nov 2022)
# use bond/react 'create atoms' feature to add 30 new styrene monomers to chain

units real

boundary p p p

atom_style full

pair_style lj/class2/coul/cut 8.5

angle_style class2

bond_style class2

dihedral_style class2

improper_style class2

variable T equal 530

read_data trimer.data   extra/bond/per/atom 5   extra/angle/per/atom 15   extra/dihedral/per/atom 15   extra/improper/per/atom 25   extra/special/per/atom 25
Reading data file ...
  orthogonal box = (-200 -200 -200) to (200 200 200)
  reading atom labelmap ...
  reading bond labelmap ...
  reading angle labelmap ...
  reading dihedral labelmap ...
  reading improper labelmap ...
  reading atoms ...
  48 atoms
  scanning bonds ...
  scanning angles ...
  scanning dihedrals ...
  scanning impropers ...
  reading bonds ...
  50 bonds
  reading angles ...
  84 angles
  reading dihedrals ...
  127 dihedrals
  reading impropers ...
  20 impropers
Finding 1-2 1-3 1-4 neighbors ...
     4 = max # of 1-2 neighbors
     8 = max # of 1-3 neighbors
    17 = max # of 1-4 neighbors
    46 = max # of special neighbors

molecule mol1 grow_styrene_pre.molecule_template
Read molecule template mol1:
  1 molecules
  0 fragments
  30 atoms with max type 4
  31 bonds with max type 6
  51 angles with max type 10
  73 dihedrals with max type 13
  13 impropers with max type 3
molecule mol2 grow_styrene_post.molecule_template
Read molecule template mol2:
  1 molecules
  1 fragments
  46 atoms with max type 4
  48 bonds with max type 6
  81 angles with max type 10
  121 dihedrals with max type 13
  19 impropers with max type 3

fix myrxns all bond/react stabilization yes statted_grp .03     react rxn1 all 1 0 3.0 mol1 mol2 grow_styrene.map         modify_create fit create_fit overlap 2.0         stabilize_steps 200 max_rxn 30
dynamic group bond_react_MASTER_group defined
dynamic group statted_grp_REACT defined

fix 1 statted_grp_REACT nvt temp $T $T 100
fix 1 statted_grp_REACT nvt temp 530 $T 100
fix 1 statted_grp_REACT nvt temp 530 530 100

fix 4 bond_react_MASTER_group temp/rescale 1 $T $T 1 1
fix 4 bond_react_MASTER_group temp/rescale 1 530 $T 1 1
fix 4 bond_react_MASTER_group temp/rescale 1 530 530 1 1

thermo_style custom step temp press density f_myrxns[1]

thermo 100

dump 1 all xyz 1 test_vis.xyz

run 8000

CITE-CITE-CITE-CITE-CITE-CITE-CITE-CITE-CITE-CITE-CITE-CITE-CITE

Your simulation uses code contributions which should be cited:

- fix bond/react: reacter.org doi:10.1016/j.polymer.2017.09.038, doi:10.1021/acs.macromol.0c02012

@Article{Gissinger17,
 author = {J. R. Gissinger and B. D. Jensen and K. E. Wise},
 title = {Modeling Chemical Reactions in Classical Molecular Dynamics Simulations},
 journal = {Polymer},
 year =    2017,
 volume =  128,
 pages =   {211--217}
}

@Article{Gissinger20,
 author = {J. R. Gissinger, B. D. Jensen, K. E. Wise},
 title = {{REACTER}: A Heuristic Method for Reactive Molecular Dynamics},
 journal = {Macromolecules},
 year =    2020,
 volume =  53,
 number =  22,
 pages =   {9953--9961}
}

CITE-CITE-CITE-CITE-CITE-CITE-CITE-CITE-CITE-CITE-CITE-CITE-CITE

Generated 6 of 6 mixed pair_coeff terms from sixthpower/geometric mixing rule
Step          Temp          Press         Density      f_myrxns[1]
0   0              0.076588866    8.1070333e-06  0
Averages over the last 41 of 81 rows, steps 4000 to 8000:
Temp Press Density f_myrxns[1]
5365.75 -2.6197 7.99498e-05 26.5854
Loop time of 13.936 on 4 procs for 8000 steps with 528 atoms

# write_data final.data nofix
