LAMMPS (3 Nov 2022)
# general variables
variable        temperature equal 700
variable        size equal 20

# variables for 'fix sgcmc'
variable        nsteps_mc     equal 100
variable        swap_fraction equal 0.2
variable        temperature_mc equal 700
variable        deltamu equal -0.70
variable        target_concentration equal 0.02
variable        kappa equal 1e3

# general settings
units           metal
atom_style      atomic

# set up structure
boundary        p p p
lattice         bcc 2.88
Lattice spacing in x,y,z = 2.88 2.88 2.88
region          box block 0 20  0 20  0 20
create_box      2 box
Created orthogonal box = (0 0 0) to (57.6 57.6 57.6)
create_atoms    1 box
Created 16000 atoms
reset_timestep  0
timestep        0.0025

# set up interaction
pair_style      eam/fs
pair_coeff      * * FeCu.pasianot.eamfs Fe Cu

# initialize velocities
variable        double_temp equal 700*2
velocity        all create 1400 428459 dist gaussian

# what and how to run
fix             integrate all npt                 temp 700 700 1.7                 aniso 0.0 0.0 1.5
fix             mc all sgcmc 100 0.2 700 -0.7                 randseed 324234                 variance 1000 0.02
  SGC - Number of MD timesteps: 100
  SGC - Fraction of swap atoms: 0.2
  SGC - Temperature: %f
  SGC - Chemical potential of species 2: -0.7
  SGC - Random number seed: 324234
  SGC - Kappa: 1000
  SGC - Target concentration of species 2: 0.02
  SGC - Target concentration of species 1: 0.98

# set up output
thermo          100
thermo_style    custom step temp atoms pe press                 lx ly lz f_mc[1] f_mc[2] f_mc[3] f_mc[4]
#dump            1 all custom 200 mc.*.dump id type x y z

run             2000
  SGC - Interaction radius: 5.50679
Step          Temp         Atoms        PotEng         Press            Lx             Ly             Lz          f_mc[1]        f_mc[2]        f_mc[3]        f_mc[4]
0   1400               16000  -65889.786     -28854.541      57.6           57.6           57.6           0              0              1              0
Averages over the last 11 of 21 rows, steps 1000 to 2000:
Temp Atoms PotEng Press Lx Ly Lz f_mc[1] f_mc[2] f_mc[3] f_mc[4]
695.466 16000 -64120.6 -18.6844 57.4316 57.4301 57.4318 62.1818 3137.82 0.981455 0.0185455
Loop time of 15.2907 on 4 procs for 2000 steps with 16000 atoms
