LAMMPS (15 Sep 2022)
# Vesicle demo

variable     T  equal  0.2
variable     LD equal  1.0

units        lj
atom_style   ellipsoid

boundary     p p p

read_data    read_data.vesicle1026
Reading data file ...
  orthogonal box = (-35 -35 -35) to (35 35 35)
  reading atoms ...
  2938 atoms
  2938 ellipsoids

compute      ali  all temp/com
compute      rott all temp/asphere bias ali

velocity     all create 0.2 87287 loop geom

pair_style   ylz  2.6
pair_coeff   *  *   1.0  1.0  4  3  0.0  2.6
neighbor     1.0 bin

thermo_style custom step temp press pxx pyy
thermo       200

timestep     0.001

#dump         1 all atom 10 onlymembrane2.lammpstrj

fix          1 all langevin 0.2 0.2  1  48279
fix          2 all nve/asphere

run          3000

CITE-CITE-CITE-CITE-CITE-CITE-CITE-CITE-CITE-CITE-CITE-CITE-CITE

Your simulation uses code contributions which should be cited:

- pair ylz command:

@Article{Yuan10,
 author =  {H. Yuan, C. Huang, J. Li, G. Lykotrafitis, and S. Zhang},
 title =   {One-particle-thick, solvent-free, coarse-grained model for biological and biomimetic fluid membranes},
 journal = {Phys. Rev. E},
 year =    2010,
 volume =  82,
 pages =   {011905}
}

CITE-CITE-CITE-CITE-CITE-CITE-CITE-CITE-CITE-CITE-CITE-CITE-CITE

Generated 0 of 1 mixed pair_coeff terms from geometric mixing rule
Step          Temp          Press           Pxx            Pyy
0   0.2           -0.0054891414  -0.0052713616  -0.0053641136
Averages over the last 8 of 16 rows, steps 1600 to 3000:
Temp Press Pxx Pyy
0.197938 -0.0011197 -0.00110337 -0.00126563
Loop time of 8.46954 on 4 procs for 3000 steps with 2938 atoms
