LAMMPS (3 Nov 2022)
# Ti alpha phase (hcp)

units           metal
boundary        p p p

atom_style      atomic
#lattice                custom 2.93093 a1 0.5 -0.866025 0 a2 0.5 0.866025 0 a3 0 0 1.596 basis 0.333333 0.666666 0.25 basis 0.666666 0.333333 0.75
lattice         custom 2.93093 a1 0.5 -0.866025 0 a2 0.5 0.866025 0 a3 0 0 1.7 basis 0.333333 0.666666 0.25 basis 0.666666 0.333333 0.75
Lattice spacing in x,y,z = 2.93093 5.0765173 4.982581
region          box block 0 1 0 1 0 1
create_box              1 box
Created orthogonal box = (0 0 0) to (2.93093 5.0765173 4.982581)
create_atoms    1 box
Created 4 atoms

pair_style      meam/sw/spline
pair_coeff      * * Ti.meam.sw.spline Ti
Reading meam/sw/spline potential file Ti.meam.sw.spline with DATE: 2012-02-01
mass            * 47.90

fix                     relax all box/relax aniso 0
thermo          1
minimize        0 0 10000 100000
Step          Temp          E_pair         E_mol          TotEng         Press          Volume
0   0             -19.186187      0             -19.186187     -52654.105      74.135408
Averages over the last 522 of 1044 rows, steps 522 to 1043:
Temp E_pair E_mol TotEng Press Volume
0 -19.3245 0 -19.3245 -29.1038 69.5912
Loop time of 0.150191 on 4 procs for 1043 steps with 4 atoms

Minimization stats:
  Stopping criterion = quadratic factors are zero
  Energy initial, next-to-last, final =
  Force two-norm initial, final = 4.5945611 2.9927541e-15
  Force max component initial, final = 3.9200702 1.4432899e-15
  Final line search alpha, max atom move = 1 1.4432899e-15
  Iterations, force evaluations = 1043 1476

variable        cohesive_energy equal pe/atoms
variable        lattice_parameter equal lx
variable        c_to_a equal lz/lx
run                     0
Step          Temp          E_pair         E_mol          TotEng         Press          Volume
1043   0             -19.324735      0             -19.324735     -4.6001569e-12  69.587141
Loop time of 2.4425e-06 on 4 procs for 0 steps with 4 atoms

print           "===================================================="
====================================================
Calculated cohesive energy:  -4.83118377779534 eV/atom
print           "Reference cohesive energy:   -4.831 eV/atom"
Reference cohesive energy:   -4.831 eV/atom
Calculated lattice parameter: 2.9304937210165 A
print           "Reference lattice parameter:  2.9304 A"
Reference lattice parameter:  2.9304 A
C/A ratio:                    1.59641567225833
print           "Reference c/a ratio:          1.596"
Reference c/a ratio:          1.596
print           "===================================================="
====================================================

#dump           1 all custom 1 alpha_relaxed.dump id type x y z fx fy fz
#run            0
