LAMMPS (4 Nov 2022)
# two monomer nylon example
# reaction produces a condensed water molecule

units real

boundary p p p

atom_style full

kspace_style pppm 1.0e-4

pair_style lj/class2/coul/long 8.5

angle_style class2

bond_style class2

dihedral_style class2

improper_style class2

read_data tiny_nylon.data   extra/bond/per/atom 5    extra/angle/per/atom 15   extra/dihedral/per/atom 15   extra/improper/per/atom 25   extra/special/per/atom 25
Reading data file ...
  orthogonal box = (-25 -25 -25) to (25 25 25)
  reading atom labelmap ...
  reading bond labelmap ...
  reading angle labelmap ...
  reading dihedral labelmap ...
  reading improper labelmap ...
  reading atoms ...
  44 atoms
  reading velocities ...
  44 velocities
  scanning bonds ...
  scanning angles ...
  scanning dihedrals ...
  scanning impropers ...
  reading bonds ...
  42 bonds
  reading angles ...
  74 angles
  reading dihedrals ...
  100 dihedrals
  reading impropers ...
  44 impropers
Finding 1-2 1-3 1-4 neighbors ...
     4 = max # of 1-2 neighbors
     6 = max # of 1-3 neighbors
    12 = max # of 1-4 neighbors
    41 = max # of special neighbors

variable runsteps equal 1000
variable prob1 equal step/v_runsteps*2+0.1
variable prob2 equal (step/v_runsteps)>0.5

velocity all create 300.0 4928459 dist gaussian

molecule mol1 rxn1_stp1_unreacted.molecule_template
Read molecule template mol1:
  1 molecules
  0 fragments
  18 atoms with max type 8
  16 bonds with max type 10
  25 angles with max type 28
  23 dihedrals with max type 36
  2 impropers with max type 3
molecule mol2 rxn1_stp1_reacted.molecule_template
Read molecule template mol2:
  1 molecules
  0 fragments
  18 atoms with max type 9
  17 bonds with max type 13
  31 angles with max type 27
  39 dihedrals with max type 33
  0 impropers with max type 0
molecule mol3 rxn1_stp2_unreacted.molecule_template
Read molecule template mol3:
  1 molecules
  0 fragments
  15 atoms with max type 9
  14 bonds with max type 13
  25 angles with max type 27
  30 dihedrals with max type 33
  0 impropers with max type 0
molecule mol4 rxn1_stp2_reacted.molecule_template
Read molecule template mol4:
  1 molecules
  0 fragments
  15 atoms with max type 11
  13 bonds with max type 15
  19 angles with max type 29
  16 dihedrals with max type 32
  2 impropers with max type 13

thermo 50

# dump 1 all xyz 1 test_vis.xyz

fix myrxns all bond/react stabilization yes statted_grp .03   react rxn1 all 1 0.0 5.0 mol1 mol2 rxn1_stp1_map prob v_prob1 1234   react rxn2 all 1 0.0 5.0 mol3 mol4 rxn1_stp2_map prob v_prob2 1234
dynamic group bond_react_MASTER_group defined
dynamic group statted_grp_REACT defined

fix 1 statted_grp_REACT nvt temp 300 300 100

# optionally, you can customize behavior of reacting atoms,
# by using the internally-created 'bond_react_MASTER_group', like so:
fix 4 bond_react_MASTER_group temp/rescale 1 300 300 10 1

thermo_style custom step temp press density v_prob1 v_prob2 f_myrxns[1] f_myrxns[2]

# restart 100 restart1 restart2

run 1000

CITE-CITE-CITE-CITE-CITE-CITE-CITE-CITE-CITE-CITE-CITE-CITE-CITE

Your simulation uses code contributions which should be cited:

- fix bond/react: reacter.org doi:10.1016/j.polymer.2017.09.038, doi:10.1021/acs.macromol.0c02012

@Article{Gissinger17,
 author = {J. R. Gissinger and B. D. Jensen and K. E. Wise},
 title = {Modeling Chemical Reactions in Classical Molecular Dynamics Simulations},
 journal = {Polymer},
 year =    2017,
 volume =  128,
 pages =   {211--217}
}

@Article{Gissinger20,
 author = {J. R. Gissinger, B. D. Jensen, K. E. Wise},
 title = {{REACTER}: A Heuristic Method for Reactive Molecular Dynamics},
 journal = {Macromolecules},
 year =    2020,
 volume =  53,
 number =  22,
 pages =   {9953--9961}
}

CITE-CITE-CITE-CITE-CITE-CITE-CITE-CITE-CITE-CITE-CITE-CITE-CITE

PPPM initialization ...
  G vector (1/distance) = 0.05345967
  grid = 2 2 2
  stencil order = 5
  estimated absolute RMS force accuracy = 0.040225597
  estimated relative force accuracy = 0.00012113819
  3d grid and FFT values/proc = 252 2
Generated 55 of 55 mixed pair_coeff terms from sixthpower/geometric mixing rule
Step          Temp          Press         Density        v_prob1        v_prob2      f_myrxns[1]    f_myrxns[2]
0   300            346.78165      0.0034851739   0.1            0              0              0
Averages over the last 11 of 21 rows, steps 500 to 1000:
Temp Press Density v_prob1 v_prob2 f_myrxns[1] f_myrxns[2]
289.262 4.2988 0.00348517 1.6 0.909091 1 0.909091
Loop time of 0.195512 on 4 procs for 1000 steps with 44 atoms

# write_restart restart_longrun
# write_data restart_longrun.data
